data_UiO-66-chGab using Rogge nomenclature

_cell_length_a  20.70040000
_cell_length_b  20.70040000
_cell_length_c  20.70040000
_cell_angle_alpha  90.00000000
_cell_angle_beta  90.00000000
_cell_angle_gamma  90.00000000

_symmetry_space_group_name_Hall  P 1
_symmetry_space_group_name_H-M P 1
_symmetry_Int_Tables_number 1

loop_
_atom_site_label
_atom_site_type_symbol
_atom_site_forcefield_label
_atom_site_fract_x
_atom_site_fract_y
_atom_site_fract_z
_atom_site_charge
C2       C    C2      0.26750014   0.00000000   0.18439982   0.01319230
C2       C    C2      0.26750014   0.50000000   0.68439982   0.01319230
C2       C    C2      0.76750014   0.00000000   0.68439982   0.01319230
C2       C    C2      0.76750014   0.50000000   0.18439982   0.01319230
C2       C    C2      0.73249986   0.00000000   0.18439982   0.01319230
C2       C    C2      0.73249986   0.50000000   0.68439982   0.01319230
C2       C    C2      0.23249986   0.00000000   0.68439982   0.01319230
C2       C    C2      0.23249986   0.50000000   0.18439982   0.01319230
C2       C    C2      0.73249986   0.00000000   0.81560018   0.01319230
C2       C    C2      0.73249986   0.50000000   0.31560018   0.01319230
C2       C    C2      0.23249986   0.00000000   0.31560018   0.01319230
C2       C    C2      0.23249986   0.50000000   0.81560018   0.01319230
C2       C    C2      0.26750014   0.00000000   0.81560018   0.01319230
C2       C    C2      0.26750014   0.50000000   0.31560018   0.01319230
C2       C    C2      0.76750014   0.00000000   0.31560018   0.01319230
C2       C    C2      0.76750014   0.50000000   0.81560018   0.01319230
C2       C    C2      0.18439982   0.26750014   0.00000000   0.01319230
C2       C    C2      0.18439982   0.76750014   0.50000000   0.01319230
C2       C    C2      0.68439982   0.26750014   0.50000000   0.01319230
C2       C    C2      0.68439982   0.76750014   0.00000000   0.01319230
C2       C    C2      0.18439982   0.73249986   0.00000000   0.01319230
C2       C    C2      0.18439982   0.23249986   0.50000000   0.01319230
C2       C    C2      0.68439982   0.73249986   0.50000000   0.01319230
C2       C    C2      0.68439982   0.23249986   0.00000000   0.01319230
C2       C    C2      0.81560018   0.73249986   0.00000000   0.01319230
C2       C    C2      0.81560018   0.23249986   0.50000000   0.01319230
C2       C    C2      0.31560018   0.73249986   0.50000000   0.01319230
C2       C    C2      0.31560018   0.23249986   0.00000000   0.01319230
C2       C    C2      0.81560018   0.26750014   0.00000000   0.01319230
C2       C    C2      0.81560018   0.76750014   0.50000000   0.01319230
C2       C    C2      0.31560018   0.26750014   0.50000000   0.01319230
C2       C    C2      0.31560018   0.76750014   0.00000000   0.01319230
C2       C    C2      0.00000000   0.18439982   0.26750014   0.01319230
C2       C    C2      0.00000000   0.68439982   0.76750014   0.01319230
C2       C    C2      0.50000000   0.18439982   0.76750014   0.01319230
C2       C    C2      0.50000000   0.68439982   0.26750014   0.01319230
C2       C    C2      0.00000000   0.18439982   0.73249986   0.01319230
C2       C    C2      0.00000000   0.68439982   0.23249986   0.01319230
C2       C    C2      0.50000000   0.18439982   0.23249986   0.01319230
C2       C    C2      0.50000000   0.68439982   0.73249986   0.01319230
C2       C    C2      0.00000000   0.81560018   0.73249986   0.01319230
C2       C    C2      0.00000000   0.31560018   0.23249986   0.01319230
C2       C    C2      0.50000000   0.81560018   0.23249986   0.01319230
C2       C    C2      0.50000000   0.31560018   0.73249986   0.01319230
C2       C    C2      0.00000000   0.81560018   0.26750014   0.01319230
C2       C    C2      0.00000000   0.31560018   0.76750014   0.01319230
C2       C    C2      0.50000000   0.81560018   0.76750014   0.01319230
C2       C    C2      0.50000000   0.31560018   0.26750014   0.01319230
C2       C    C2      0.00000000   0.26750014   0.81560018   0.01319230
C2       C    C2      0.00000000   0.76750014   0.31560018   0.01319230
C2       C    C2      0.50000000   0.26750014   0.31560018   0.01319230
C2       C    C2      0.50000000   0.76750014   0.81560018   0.01319230
C2       C    C2      0.00000000   0.73249986   0.81560018   0.01319230
C2       C    C2      0.00000000   0.23249986   0.31560018   0.01319230
C2       C    C2      0.50000000   0.73249986   0.31560018   0.01319230
C2       C    C2      0.50000000   0.23249986   0.81560018   0.01319230
C2       C    C2      0.00000000   0.73249986   0.18439982   0.01319230
C2       C    C2      0.00000000   0.23249986   0.68439982   0.01319230
C2       C    C2      0.50000000   0.73249986   0.68439982   0.01319230
C2       C    C2      0.50000000   0.23249986   0.18439982   0.01319230
C2       C    C2      0.00000000   0.26750014   0.18439982   0.01319230
C2       C    C2      0.00000000   0.76750014   0.68439982   0.01319230
C2       C    C2      0.50000000   0.26750014   0.68439982   0.01319230
C2       C    C2      0.50000000   0.76750014   0.18439982   0.01319230
C2       C    C2      0.26750014   0.18439982   0.00000000   0.01319230
C2       C    C2      0.26750014   0.68439982   0.50000000   0.01319230
C2       C    C2      0.76750014   0.18439982   0.50000000   0.01319230
C2       C    C2      0.76750014   0.68439982   0.00000000   0.01319230
C2       C    C2      0.73249986   0.18439982   0.00000000   0.01319230
C2       C    C2      0.73249986   0.68439982   0.50000000   0.01319230
C2       C    C2      0.23249986   0.18439982   0.50000000   0.01319230
C2       C    C2      0.23249986   0.68439982   0.00000000   0.01319230
C2       C    C2      0.73249986   0.81560018   0.00000000   0.01319230
C2       C    C2      0.73249986   0.31560018   0.50000000   0.01319230
C2       C    C2      0.23249986   0.81560018   0.50000000   0.01319230
C2       C    C2      0.23249986   0.31560018   0.00000000   0.01319230
C2       C    C2      0.26750014   0.81560018   0.00000000   0.01319230
C2       C    C2      0.26750014   0.31560018   0.50000000   0.01319230
C2       C    C2      0.76750014   0.81560018   0.50000000   0.01319230
C2       C    C2      0.76750014   0.31560018   0.00000000   0.01319230
C2       C    C2      0.18439982   0.00000000   0.73249986   0.01319230
C2       C    C2      0.18439982   0.50000000   0.23249986   0.01319230
C2       C    C2      0.68439982   0.00000000   0.23249986   0.01319230
C2       C    C2      0.68439982   0.50000000   0.73249986   0.01319230
C2       C    C2      0.18439982   0.00000000   0.26750014   0.01319230
C2       C    C2      0.18439982   0.50000000   0.76750014   0.01319230
C2       C    C2      0.68439982   0.00000000   0.76750014   0.01319230
C2       C    C2      0.68439982   0.50000000   0.26750014   0.01319230
C2       C    C2      0.81560018   0.00000000   0.26750014   0.01319230
C2       C    C2      0.81560018   0.50000000   0.76750014   0.01319230
C2       C    C2      0.31560018   0.00000000   0.76750014   0.01319230
C2       C    C2      0.31560018   0.50000000   0.26750014   0.01319230
C2       C    C2      0.81560018   0.00000000   0.73249986   0.01319230
C2       C    C2      0.81560018   0.50000000   0.23249986   0.01319230
C2       C    C2      0.31560018   0.00000000   0.23249986   0.01319230
C2       C    C2      0.31560018   0.50000000   0.73249986   0.01319230
C_ca       C    C_ca      0.15359993   0.00000000   0.84640007   0.52957100
C_ca       C    C_ca      0.15359993   0.50000000   0.34640007   0.52957100
C_ca       C    C_ca      0.65359993   0.00000000   0.34640007   0.52957100
C_ca       C    C_ca      0.65359993   0.50000000   0.84640007   0.52957100
C_ca       C    C_ca      0.84640007   0.00000000   0.84640007   0.52957100
C_ca       C    C_ca      0.84640007   0.50000000   0.34640007   0.52957100
C_ca       C    C_ca      0.34640007   0.00000000   0.34640007   0.52957100
C_ca       C    C_ca      0.34640007   0.50000000   0.84640007   0.52957100
C_ca       C    C_ca      0.84640007   0.00000000   0.15359993   0.52957100
C_ca       C    C_ca      0.84640007   0.50000000   0.65359993   0.52957100
C_ca       C    C_ca      0.34640007   0.00000000   0.65359993   0.52957100
C_ca       C    C_ca      0.34640007   0.50000000   0.15359993   0.52957100
C_ca       C    C_ca      0.15359993   0.00000000   0.15359993   0.52957100
C_ca       C    C_ca      0.15359993   0.50000000   0.65359993   0.52957100
C_ca       C    C_ca      0.65359993   0.00000000   0.65359993   0.52957100
C_ca       C    C_ca      0.65359993   0.50000000   0.15359993   0.52957100
C_ca       C    C_ca      0.84640007   0.15359993   0.00000000   0.52957100
C_ca       C    C_ca      0.84640007   0.65359993   0.50000000   0.52957100
C_ca       C    C_ca      0.34640007   0.15359993   0.50000000   0.52957100
C_ca       C    C_ca      0.34640007   0.65359993   0.00000000   0.52957100
C_ca       C    C_ca      0.84640007   0.84640007   0.00000000   0.52957100
C_ca       C    C_ca      0.84640007   0.34640007   0.50000000   0.52957100
C_ca       C    C_ca      0.34640007   0.84640007   0.50000000   0.52957100
C_ca       C    C_ca      0.34640007   0.34640007   0.00000000   0.52957100
C_ca       C    C_ca      0.15359993   0.84640007   0.00000000   0.52957100
C_ca       C    C_ca      0.15359993   0.34640007   0.50000000   0.52957100
C_ca       C    C_ca      0.65359993   0.84640007   0.50000000   0.52957100
C_ca       C    C_ca      0.65359993   0.34640007   0.00000000   0.52957100
C_ca       C    C_ca      0.15359993   0.15359993   0.00000000   0.52957100
C_ca       C    C_ca      0.15359993   0.65359993   0.50000000   0.52957100
C_ca       C    C_ca      0.65359993   0.15359993   0.50000000   0.52957100
C_ca       C    C_ca      0.65359993   0.65359993   0.00000000   0.52957100
C_ca       C    C_ca      0.00000000   0.84640007   0.15359993   0.52957100
C_ca       C    C_ca      0.00000000   0.34640007   0.65359993   0.52957100
C_ca       C    C_ca      0.50000000   0.84640007   0.65359993   0.52957100
C_ca       C    C_ca      0.50000000   0.34640007   0.15359993   0.52957100
C_ca       C    C_ca      0.00000000   0.84640007   0.84640007   0.52957100
C_ca       C    C_ca      0.00000000   0.34640007   0.34640007   0.52957100
C_ca       C    C_ca      0.50000000   0.84640007   0.34640007   0.52957100
C_ca       C    C_ca      0.50000000   0.34640007   0.84640007   0.52957100
C_ca       C    C_ca      0.00000000   0.15359993   0.84640007   0.52957100
C_ca       C    C_ca      0.00000000   0.65359993   0.34640007   0.52957100
C_ca       C    C_ca      0.50000000   0.15359993   0.34640007   0.52957100
C_ca       C    C_ca      0.50000000   0.65359993   0.84640007   0.52957100
C_ca       C    C_ca      0.00000000   0.15359993   0.15359993   0.52957100
C_ca       C    C_ca      0.00000000   0.65359993   0.65359993   0.52957100
C_ca       C    C_ca      0.50000000   0.15359993   0.65359993   0.52957100
C_ca       C    C_ca      0.50000000   0.65359993   0.15359993   0.52957100
C1       C    C1      0.20499990   0.00000000   0.20499990  -0.13772100
C1       C    C1      0.20499990   0.50000000   0.70499990  -0.13772100
C1       C    C1      0.70499990   0.00000000   0.70499990  -0.13772100
C1       C    C1      0.70499990   0.50000000   0.20499990  -0.13772100
C1       C    C1      0.79500010   0.00000000   0.20499990  -0.13772100
C1       C    C1      0.79500010   0.50000000   0.70499990  -0.13772100
C1       C    C1      0.29500010   0.00000000   0.70499990  -0.13772100
C1       C    C1      0.29500010   0.50000000   0.20499990  -0.13772100
C1       C    C1      0.79500010   0.00000000   0.79500010  -0.13772100
C1       C    C1      0.79500010   0.50000000   0.29500010  -0.13772100
C1       C    C1      0.29500010   0.00000000   0.29500010  -0.13772100
C1       C    C1      0.29500010   0.50000000   0.79500010  -0.13772100
C1       C    C1      0.20499990   0.00000000   0.79500010  -0.13772100
C1       C    C1      0.20499990   0.50000000   0.29500010  -0.13772100
C1       C    C1      0.70499990   0.00000000   0.29500010  -0.13772100
C1       C    C1      0.70499990   0.50000000   0.79500010  -0.13772100
C1       C    C1      0.20499990   0.20499990   0.00000000  -0.13772100
C1       C    C1      0.20499990   0.70499990   0.50000000  -0.13772100
C1       C    C1      0.70499990   0.20499990   0.50000000  -0.13772100
C1       C    C1      0.70499990   0.70499990   0.00000000  -0.13772100
C1       C    C1      0.20499990   0.79500010   0.00000000  -0.13772100
C1       C    C1      0.20499990   0.29500010   0.50000000  -0.13772100
C1       C    C1      0.70499990   0.79500010   0.50000000  -0.13772100
C1       C    C1      0.70499990   0.29500010   0.00000000  -0.13772100
C1       C    C1      0.79500010   0.79500010   0.00000000  -0.13772100
C1       C    C1      0.79500010   0.29500010   0.50000000  -0.13772100
C1       C    C1      0.29500010   0.79500010   0.50000000  -0.13772100
C1       C    C1      0.29500010   0.29500010   0.00000000  -0.13772100
C1       C    C1      0.79500010   0.20499990   0.00000000  -0.13772100
C1       C    C1      0.79500010   0.70499990   0.50000000  -0.13772100
C1       C    C1      0.29500010   0.20499990   0.50000000  -0.13772100
C1       C    C1      0.29500010   0.70499990   0.00000000  -0.13772100
C1       C    C1      0.00000000   0.20499990   0.20499990  -0.13772100
C1       C    C1      0.00000000   0.70499990   0.70499990  -0.13772100
C1       C    C1      0.50000000   0.20499990   0.70499990  -0.13772100
C1       C    C1      0.50000000   0.70499990   0.20499990  -0.13772100
C1       C    C1      0.00000000   0.20499990   0.79500010  -0.13772100
C1       C    C1      0.00000000   0.70499990   0.29500010  -0.13772100
C1       C    C1      0.50000000   0.20499990   0.29500010  -0.13772100
C1       C    C1      0.50000000   0.70499990   0.79500010  -0.13772100
C1       C    C1      0.00000000   0.79500010   0.79500010  -0.13772100
C1       C    C1      0.00000000   0.29500010   0.29500010  -0.13772100
C1       C    C1      0.50000000   0.79500010   0.29500010  -0.13772100
C1       C    C1      0.50000000   0.29500010   0.79500010  -0.13772100
C1       C    C1      0.00000000   0.79500010   0.20499990  -0.13772100
C1       C    C1      0.00000000   0.29500010   0.70499990  -0.13772100
C1       C    C1      0.50000000   0.79500010   0.70499990  -0.13772100
C1       C    C1      0.50000000   0.29500010   0.20499990  -0.13772100
H2       H    H2      0.27852022   0.99993285   0.13309018   0.03737780
H2       H    H2      0.27852022   0.49993189   0.63309018   0.03737780
H2       H    H2      0.77851877   0.99993092   0.63309018   0.03737780
H2       H    H2      0.77852312   0.49993913   0.13309018   0.03737780
H2       H    H2      0.72147785   0.00006377   0.13309018   0.03737780
H2       H    H2      0.72148123   0.50007005   0.63309018   0.03737780
H2       H    H2      0.22147881   0.00006618   0.63309018   0.03737780
H2       H    H2      0.22148123   0.50007005   0.13309018   0.03737780
H2       H    H2      0.72147881   0.99992802   0.86690982   0.03737780
H2       H    H2      0.72147881   0.49993382   0.36690982   0.03737780
H2       H    H2      0.22147978   0.99993092   0.36690982   0.03737780
H2       H    H2      0.22148219   0.49993720   0.86691078   0.03737780
H2       H    H2      0.27852022   0.00006715   0.86690982   0.03737780
H2       H    H2      0.27851781   0.50006522   0.36691078   0.03737780
H2       H    H2      0.77852215   0.00006715   0.36690982   0.03737780
H2       H    H2      0.77851781   0.50007295   0.86691078   0.03737780
H2       H    H2      0.13309018   0.27852119   0.99992802   0.03737780
H2       H    H2      0.13309018   0.77852119   0.49993913   0.03737780
H2       H    H2      0.63309018   0.27852022   0.49992995   0.03737780
H2       H    H2      0.63308922   0.77851394   0.99994010   0.03737780
H2       H    H2      0.13309018   0.72147785   0.00006280   0.03737780
H2       H    H2      0.13309018   0.22147978   0.50007005   0.03737780
H2       H    H2      0.63309018   0.72147785   0.50006522   0.03737780
H2       H    H2      0.63309018   0.22147978   0.00007488   0.03737780
H2       H    H2      0.86690982   0.72147978   0.99992512   0.03737780
H2       H    H2      0.86690982   0.22148123   0.49993913   0.03737780
H2       H    H2      0.36690885   0.72147688   0.49992705   0.03737780
H2       H    H2      0.36690982   0.22147978   0.99994300   0.03737780
H2       H    H2      0.86690982   0.27851877   0.00005990   0.03737780
H2       H    H2      0.86690982   0.77852022   0.50007681   0.03737780
H2       H    H2      0.36690982   0.27852022   0.50005990   0.03737780
H2       H    H2      0.36690982   0.77852022   0.00007584   0.03737780
H2       H    H2      0.99993478   0.13309018   0.27852215   0.03737780
H2       H    H2      0.99992705   0.63309018   0.77852022   0.03737780
H2       H    H2      0.49993478   0.13309115   0.77852505   0.03737780
H2       H    H2      0.49992802   0.63309018   0.27852022   0.03737780
H2       H    H2      0.00006811   0.13309018   0.72147785   0.03737780
H2       H    H2      0.00006618   0.63309018   0.22147785   0.03737780
H2       H    H2      0.50006280   0.13309018   0.22147785   0.03737780
H2       H    H2      0.50007198   0.63309018   0.72147881   0.03737780
H2       H    H2      0.99993285   0.86690982   0.72147978   0.03737780
H2       H    H2      0.99993285   0.36690885   0.22147591   0.03737780
H2       H    H2      0.49993092   0.86690982   0.22147978   0.03737780
H2       H    H2      0.49993720   0.36690982   0.72147688   0.03737780
H2       H    H2      0.00006908   0.86690982   0.27852119   0.03737780
H2       H    H2      0.00006280   0.36690982   0.77852312   0.03737780
H2       H    H2      0.50007295   0.86690885   0.77852312   0.03737780
H2       H    H2      0.50006087   0.36691078   0.27851877   0.03737780
H2       H    H2      0.00006522   0.27852215   0.86690982   0.03737780
H2       H    H2      0.00006908   0.77852119   0.36690982   0.03737780
H2       H    H2      0.50006618   0.27852022   0.36690982   0.03737780
H2       H    H2      0.50007681   0.77852022   0.86690982   0.03737780
H2       H    H2      0.99992705   0.72147881   0.86690982   0.03737780
H2       H    H2      0.99993285   0.22147591   0.36690885   0.03737780
H2       H    H2      0.49993092   0.72148123   0.36690982   0.03737780
H2       H    H2      0.49993720   0.22147785   0.86690982   0.03737780
H2       H    H2      0.00006280   0.72147785   0.13309018   0.03737780
H2       H    H2      0.00006715   0.22147785   0.63309018   0.03737780
H2       H    H2      0.50007101   0.72147785   0.63309018   0.03737780
H2       H    H2      0.50006618   0.22148219   0.13308922   0.03737780
H2       H    H2      0.99993189   0.27852409   0.13309115   0.03737780
H2       H    H2      0.99993189   0.77851781   0.63309018   0.03737780
H2       H    H2      0.49993623   0.27852312   0.63309018   0.03737780
H2       H    H2      0.49994010   0.77851394   0.13308777   0.03737780
H2       H    H2      0.27852022   0.13309018   0.99993720   0.03737780
H2       H    H2      0.27852119   0.63309018   0.49992705   0.03737780
H2       H    H2      0.77852022   0.13309018   0.49993913   0.03737780
H2       H    H2      0.77852119   0.63309018   0.99991981   0.03737780
H2       H    H2      0.72147978   0.13309018   0.00006908   0.03737780
H2       H    H2      0.72147881   0.63309018   0.50006908   0.03737780
H2       H    H2      0.22147881   0.13309018   0.50006715   0.03737780
H2       H    H2      0.22147978   0.63309018   0.00006280   0.03737780
H2       H    H2      0.72147978   0.86690982   0.99993285   0.03737780
H2       H    H2      0.72147978   0.36690982   0.49993285   0.03737780
H2       H    H2      0.22147785   0.86690982   0.49993285   0.03737780
H2       H    H2      0.22148123   0.36690982   0.99992802   0.03737780
H2       H    H2      0.27852215   0.86690982   0.00007101   0.03737780
H2       H    H2      0.27851781   0.36691078   0.50006087   0.03737780
H2       H    H2      0.77852215   0.86690982   0.50007584   0.03737780
H2       H    H2      0.77851684   0.36691078   0.00005411   0.03737780
H2       H    H2      0.13309018   0.00006280   0.72147978   0.03737780
H2       H    H2      0.13309018   0.50007198   0.22147785   0.03737780
H2       H    H2      0.63309115   0.00006087   0.22147688   0.03737780
H2       H    H2      0.63309018   0.50007391   0.72148123   0.03737780
H2       H    H2      0.13309018   0.99992899   0.27851877   0.03737780
H2       H    H2      0.13309018   0.49994010   0.77852215   0.03737780
H2       H    H2      0.63309018   0.99992512   0.77852119   0.03737780
H2       H    H2      0.63309018   0.49993720   0.27852215   0.03737780
H2       H    H2      0.86690982   0.00006377   0.27852022   0.03737780
H2       H    H2      0.86690982   0.50007488   0.77852119   0.03737780
H2       H    H2      0.36690982   0.00006183   0.77852022   0.03737780
H2       H    H2      0.36690982   0.50006811   0.27852119   0.03737780
H2       H    H2      0.86690982   0.99992899   0.72147978   0.03737780
H2       H    H2      0.86690982   0.49993913   0.22147881   0.03737780
H2       H    H2      0.36690982   0.99992802   0.22147881   0.03737780
H2       H    H2      0.36690982   0.49993913   0.72148123   0.03737780
H_oh       H    H_oh      0.41649195   0.58352206   0.91647601   0.24163400
H_oh       H    H_oh      0.58348583   0.41649099   0.91645089   0.24163400
H_oh       H    H_oh      0.41653591   0.41646297   0.08354283   0.24163400
H_oh       H    H_oh      0.58358921   0.58335878   0.08356409   0.24163400
H_oh       H    H_oh      0.91646393   0.58346988   0.41646103   0.24163400
H_oh       H    H_oh      0.91647408   0.41649292   0.58352399   0.24163400
H_oh       H    H_oh      0.08347810   0.58352496   0.58354718   0.24163400
H_oh       H    H_oh      0.08346892   0.41646876   0.41645524   0.24163400
H_oh       H    H_oh      0.58349211   0.91647021   0.41647021   0.24163400
H_oh       H    H_oh      0.41647987   0.91648277   0.58351481   0.24163400
H_oh       H    H_oh      0.41645910   0.08344283   0.41644316   0.24163400
H_oh       H    H_oh      0.58353413   0.08345781   0.58355104   0.24163400
H_oh       H    H_oh      0.08355104   0.08353800   0.08345588   0.24163400
H_oh       H    H_oh      0.91645620   0.91647118   0.08348486   0.24163400
H_oh       H    H_oh      0.91645910   0.08351916   0.91650789   0.24163400
H_oh       H    H_oh      0.08351819   0.91647987   0.91647987   0.24163400
O_ca       O    O_ca      0.17047014   0.00000000   0.09530009  -0.73922400
O_ca       O    O_ca      0.17047014   0.50000000   0.59530009  -0.73922400
O_ca       O    O_ca      0.67047014   0.00000000   0.59530009  -0.73922400
O_ca       O    O_ca      0.67047014   0.50000000   0.09530009  -0.73922400
O_ca       O    O_ca      0.82952986   0.00000000   0.09530009  -0.73922400
O_ca       O    O_ca      0.82952986   0.50000000   0.59530009  -0.73922400
O_ca       O    O_ca      0.32952986   0.00000000   0.59530009  -0.73922400
O_ca       O    O_ca      0.32952986   0.50000000   0.09530009  -0.73922400
O_ca       O    O_ca      0.82952986   0.00000000   0.90469991  -0.73922400
O_ca       O    O_ca      0.82952986   0.50000000   0.40469991  -0.73922400
O_ca       O    O_ca      0.32952986   0.00000000   0.40469991  -0.73922400
O_ca       O    O_ca      0.32952986   0.50000000   0.90469991  -0.73922400
O_ca       O    O_ca      0.17047014   0.00000000   0.90469991  -0.73922400
O_ca       O    O_ca      0.17047014   0.50000000   0.40469991  -0.73922400
O_ca       O    O_ca      0.67047014   0.00000000   0.40469991  -0.73922400
O_ca       O    O_ca      0.67047014   0.50000000   0.90469991  -0.73922400
O_ca       O    O_ca      0.09530009   0.17047014   0.00000000  -0.73922400
O_ca       O    O_ca      0.09530009   0.67047014   0.50000000  -0.73922400
O_ca       O    O_ca      0.59530009   0.17047014   0.50000000  -0.73922400
O_ca       O    O_ca      0.59530009   0.67047014   0.00000000  -0.73922400
O_ca       O    O_ca      0.09530009   0.82952986   0.00000000  -0.73922400
O_ca       O    O_ca      0.09530009   0.32952986   0.50000000  -0.73922400
O_ca       O    O_ca      0.59530009   0.82952986   0.50000000  -0.73922400
O_ca       O    O_ca      0.59530009   0.32952986   0.00000000  -0.73922400
O_ca       O    O_ca      0.90469991   0.82952986   0.00000000  -0.73922400
O_ca       O    O_ca      0.90469991   0.32952986   0.50000000  -0.73922400
O_ca       O    O_ca      0.40469991   0.82952986   0.50000000  -0.73922400
O_ca       O    O_ca      0.40469991   0.32952986   0.00000000  -0.73922400
O_ca       O    O_ca      0.90469991   0.17047014   0.00000000  -0.73922400
O_ca       O    O_ca      0.90469991   0.67047014   0.50000000  -0.73922400
O_ca       O    O_ca      0.40469991   0.17047014   0.50000000  -0.73922400
O_ca       O    O_ca      0.40469991   0.67047014   0.00000000  -0.73922400
O_ca       O    O_ca      0.00000000   0.09530009   0.17047014  -0.73922400
O_ca       O    O_ca      0.00000000   0.59530009   0.67047014  -0.73922400
O_ca       O    O_ca      0.50000000   0.09530009   0.67047014  -0.73922400
O_ca       O    O_ca      0.50000000   0.59530009   0.17047014  -0.73922400
O_ca       O    O_ca      0.00000000   0.09530009   0.82952986  -0.73922400
O_ca       O    O_ca      0.00000000   0.59530009   0.32952986  -0.73922400
O_ca       O    O_ca      0.50000000   0.09530009   0.32952986  -0.73922400
O_ca       O    O_ca      0.50000000   0.59530009   0.82952986  -0.73922400
O_ca       O    O_ca      0.00000000   0.90469991   0.82952986  -0.73922400
O_ca       O    O_ca      0.00000000   0.40469991   0.32952986  -0.73922400
O_ca       O    O_ca      0.50000000   0.90469991   0.32952986  -0.73922400
O_ca       O    O_ca      0.50000000   0.40469991   0.82952986  -0.73922400
O_ca       O    O_ca      0.00000000   0.90469991   0.17047014  -0.73922400
O_ca       O    O_ca      0.00000000   0.40469991   0.67047014  -0.73922400
O_ca       O    O_ca      0.50000000   0.90469991   0.67047014  -0.73922400
O_ca       O    O_ca      0.50000000   0.40469991   0.17047014  -0.73922400
O_ca       O    O_ca      0.00000000   0.17047014   0.90469991  -0.73922400
O_ca       O    O_ca      0.00000000   0.67047014   0.40469991  -0.73922400
O_ca       O    O_ca      0.50000000   0.17047014   0.40469991  -0.73922400
O_ca       O    O_ca      0.50000000   0.67047014   0.90469991  -0.73922400
O_ca       O    O_ca      0.00000000   0.82952986   0.90469991  -0.73922400
O_ca       O    O_ca      0.00000000   0.32952986   0.40469991  -0.73922400
O_ca       O    O_ca      0.50000000   0.82952986   0.40469991  -0.73922400
O_ca       O    O_ca      0.50000000   0.32952986   0.90469991  -0.73922400
O_ca       O    O_ca      0.00000000   0.82952986   0.09530009  -0.73922400
O_ca       O    O_ca      0.00000000   0.32952986   0.59530009  -0.73922400
O_ca       O    O_ca      0.50000000   0.82952986   0.59530009  -0.73922400
O_ca       O    O_ca      0.50000000   0.32952986   0.09530009  -0.73922400
O_ca       O    O_ca      0.00000000   0.17047014   0.09530009  -0.73922400
O_ca       O    O_ca      0.00000000   0.67047014   0.59530009  -0.73922400
O_ca       O    O_ca      0.50000000   0.17047014   0.59530009  -0.73922400
O_ca       O    O_ca      0.50000000   0.67047014   0.09530009  -0.73922400
O_ca       O    O_ca      0.17047014   0.09530009   0.00000000  -0.73922400
O_ca       O    O_ca      0.17047014   0.59530009   0.50000000  -0.73922400
O_ca       O    O_ca      0.67047014   0.09530009   0.50000000  -0.73922400
O_ca       O    O_ca      0.67047014   0.59530009   0.00000000  -0.73922400
O_ca       O    O_ca      0.82952986   0.09530009   0.00000000  -0.73922400
O_ca       O    O_ca      0.82952986   0.59530009   0.50000000  -0.73922400
O_ca       O    O_ca      0.32952986   0.09530009   0.50000000  -0.73922400
O_ca       O    O_ca      0.32952986   0.59530009   0.00000000  -0.73922400
O_ca       O    O_ca      0.82952986   0.90469991   0.00000000  -0.73922400
O_ca       O    O_ca      0.82952986   0.40469991   0.50000000  -0.73922400
O_ca       O    O_ca      0.32952986   0.90469991   0.50000000  -0.73922400
O_ca       O    O_ca      0.32952986   0.40469991   0.00000000  -0.73922400
O_ca       O    O_ca      0.17047014   0.90469991   0.00000000  -0.73922400
O_ca       O    O_ca      0.17047014   0.40469991   0.50000000  -0.73922400
O_ca       O    O_ca      0.67047014   0.90469991   0.50000000  -0.73922400
O_ca       O    O_ca      0.67047014   0.40469991   0.00000000  -0.73922400
O_ca       O    O_ca      0.09530009   0.00000000   0.82952986  -0.73922400
O_ca       O    O_ca      0.09530009   0.50000000   0.32952986  -0.73922400
O_ca       O    O_ca      0.59530009   0.00000000   0.32952986  -0.73922400
O_ca       O    O_ca      0.59530009   0.50000000   0.82952986  -0.73922400
O_ca       O    O_ca      0.09530009   0.00000000   0.17047014  -0.73922400
O_ca       O    O_ca      0.09530009   0.50000000   0.67047014  -0.73922400
O_ca       O    O_ca      0.59530009   0.00000000   0.67047014  -0.73922400
O_ca       O    O_ca      0.59530009   0.50000000   0.17047014  -0.73922400
O_ca       O    O_ca      0.90469991   0.00000000   0.17047014  -0.73922400
O_ca       O    O_ca      0.90469991   0.50000000   0.67047014  -0.73922400
O_ca       O    O_ca      0.40469991   0.00000000   0.67047014  -0.73922400
O_ca       O    O_ca      0.40469991   0.50000000   0.17047014  -0.73922400
O_ca       O    O_ca      0.90469991   0.00000000   0.82952986  -0.73922400
O_ca       O    O_ca      0.90469991   0.50000000   0.32952986  -0.73922400
O_ca       O    O_ca      0.40469991   0.00000000   0.32952986  -0.73922400
O_ca       O    O_ca      0.40469991   0.50000000   0.82952986  -0.73922400
O_oh       O    O_oh      0.05609988   0.94390012   0.94390012  -3.30053800
O_oh       O    O_oh      0.05609988   0.44390012   0.44390012  -3.30053800
O_oh       O    O_oh      0.55609988   0.94390012   0.44390012  -3.30053800
O_oh       O    O_oh      0.55609988   0.44390012   0.94390012  -3.30053800
O_oh       O    O_oh      0.94390012   0.05609988   0.94390012  -3.30053800
O_oh       O    O_oh      0.94390012   0.55609988   0.44390012  -3.30053800
O_oh       O    O_oh      0.44390012   0.05609988   0.44390012  -3.30053800
O_oh       O    O_oh      0.44390012   0.55609988   0.94390012  -3.30053800
O_oh       O    O_oh      0.94390012   0.94390012   0.05609988  -3.30053800
O_oh       O    O_oh      0.94390012   0.44390012   0.55609988  -3.30053800
O_oh       O    O_oh      0.44390012   0.94390012   0.55609988  -3.30053800
O_oh       O    O_oh      0.44390012   0.44390012   0.05609988  -3.30053800
O_oh       O    O_oh      0.05609988   0.05609988   0.05609988  -3.30053800
O_oh       O    O_oh      0.05609988   0.55609988   0.55609988  -3.30053800
O_oh       O    O_oh      0.55609988   0.05609988   0.55609988  -3.30053800
O_oh       O    O_oh      0.55609988   0.55609988   0.05609988  -3.30053800
O_ox       O    O_ox      0.94390012   0.05609988   0.05609988  -0.73922400
O_ox       O    O_ox      0.94390012   0.55609988   0.55609988  -0.73922400
O_ox       O    O_ox      0.44390012   0.05609988   0.55609988  -0.73922400
O_ox       O    O_ox      0.44390012   0.55609988   0.05609988  -0.73922400
O_ox       O    O_ox      0.05609988   0.94390012   0.05609988  -0.73922400
O_ox       O    O_ox      0.05609988   0.44390012   0.55609988  -0.73922400
O_ox       O    O_ox      0.55609988   0.94390012   0.55609988  -0.73922400
O_ox       O    O_ox      0.55609988   0.44390012   0.05609988  -0.73922400
O_ox       O    O_ox      0.94390012   0.94390012   0.94390012  -0.73922400
O_ox       O    O_ox      0.94390012   0.44390012   0.44390012  -0.73922400
O_ox       O    O_ox      0.44390012   0.94390012   0.44390012  -0.73922400
O_ox       O    O_ox      0.44390012   0.44390012   0.94390012  -0.73922400
O_ox       O    O_ox      0.05609988   0.05609988   0.94390012  -0.73922400
O_ox       O    O_ox      0.05609988   0.55609988   0.44390012  -0.73922400
O_ox       O    O_ox      0.55609988   0.05609988   0.44390012  -0.73922400
O_ox       O    O_ox      0.55609988   0.55609988   0.94390012  -0.73922400
Zr      Zr   Zr     0.11988995   0.00000000   0.00000000   4.50300100
Zr      Zr   Zr     0.11988995   0.50000000   0.50000000   4.50300100
Zr      Zr   Zr     0.61988995   0.00000000   0.50000000   4.50300100
Zr      Zr   Zr     0.61988995   0.50000000   0.00000000   4.50300100
Zr      Zr   Zr     0.88011005   0.00000000   0.00000000   4.50300100
Zr      Zr   Zr     0.88011005   0.50000000   0.50000000   4.50300100
Zr      Zr   Zr     0.38011005   0.00000000   0.50000000   4.50300100
Zr      Zr   Zr     0.38011005   0.50000000   0.00000000   4.50300100
Zr      Zr   Zr     0.00000000   0.11988995   0.00000000   4.50300100
Zr      Zr   Zr     0.00000000   0.61988995   0.50000000   4.50300100
Zr      Zr   Zr     0.50000000   0.11988995   0.50000000   4.50300100
Zr      Zr   Zr     0.50000000   0.61988995   0.00000000   4.50300100
Zr      Zr   Zr     0.00000000   0.88011005   0.00000000   4.50300100
Zr      Zr   Zr     0.00000000   0.38011005   0.50000000   4.50300100
Zr      Zr   Zr     0.50000000   0.88011005   0.50000000   4.50300100
Zr      Zr   Zr     0.50000000   0.38011005   0.00000000   4.50300100
Zr      Zr   Zr     0.00000000   0.00000000   0.11988995   4.50300100
Zr      Zr   Zr     0.00000000   0.50000000   0.61988995   4.50300100
Zr      Zr   Zr     0.50000000   0.00000000   0.61988995   4.50300100
Zr      Zr   Zr     0.50000000   0.50000000   0.11988995   4.50300100
Zr      Zr   Zr     0.00000000   0.00000000   0.88011005   4.50300100
Zr      Zr   Zr     0.00000000   0.50000000   0.38011005   4.50300100
Zr      Zr   Zr     0.50000000   0.00000000   0.38011005   4.50300100
Zr      Zr   Zr     0.50000000   0.50000000   0.88011005   4.50300100
